Circuit: * C:\Users\Shannon\Dropbox\moog\spankulator\Spankulator-Hardware\spice\anti_alias_5k.asc

Direct Newton iteration for .op point succeeded.

Date: Mon Mar 01 04:10:57 2021
Total elapsed time: 0.055 seconds.

tnom = 27
temp = 27
method = trap
totiter = 4
traniter = 0
tranpoints = 0
accept = 0
rejected = 0
matrix size = 42
fillins = 47
solver = Normal
Matrix Compiler1:     286 opcodes
Matrix Compiler2: 5.79 KB object code size
