Circuit: * C:\Users\shann\Dropbox\moog\spankulator\Spankulator-Hardware\spice\Draft1.asc


Date: Thu Jan 20 09:06:26 2022
Total elapsed time: 0.026 seconds.

tnom = 27
temp = 27
method = trap
totiter = 0
traniter = 0
tranpoints = 0
accept = 0
rejected = 0
matrix size = 3
fillins = 0
solver = Normal

