Circuit: * C:\Users\shann\Dropbox\moog\spankulator\Spankulator-Hardware\spice\op_int_rc.asc

Direct Newton iteration for .op point succeeded.

Date: Sat Feb 12 09:39:14 2022
Total elapsed time: 0.031 seconds.

tnom = 27
temp = 27
method = trap
totiter = 12
traniter = 0
tranpoints = 0
accept = 0
rejected = 0
matrix size = 13
fillins = 3
solver = Normal
Matrix Compiler1:      40 opcodes
Matrix Compiler2: 1.15 KB object code size
