Circuit: * C:\Users\shann\Dropbox\moog\spankulator\Spankulator-Hardware\spice\rc.asc


Date: Wed Jan 26 13:25:02 2022
Total elapsed time: 0.028 seconds.

tnom = 27
temp = 27
method = trap
totiter = 0
traniter = 0
tranpoints = 0
accept = 0
rejected = 0
matrix size = 3
fillins = 0
solver = Normal

