Circuit: * C:\Users\shann\Dropbox\moog\spankulator\Spankulator-Hardware\spice\spank_input_new.asc

Direct Newton iteration for .op point succeeded.

Date: Sun Oct 30 07:24:00 2022
Total elapsed time: 0.079 seconds.

tnom = 27
temp = 27
method = modified trap
totiter = 2358
traniter = 2353
tranpoints = 1105
accept = 764
rejected = 341
matrix size = 29
fillins = 14
solver = Normal
Thread vector: 6.6/4.6[2] 1.4/1.7[1] 1.1/1.2[1] 0.2/1.1[1]  2592/500
Matrix Compiler1: 2.07 KB object code size  0.5/0.3/[0.1]
Matrix Compiler2: 3.19 KB object code size  0.3/0.4/[0.2]

