Circuit: * C:\Users\Shannon\Dropbox\moog\spankulator\Spankulator-Hardware\spice\spank_input.asc

Direct Newton iteration for .op point succeeded.

Date: Tue Mar 30 04:19:38 2021
Total elapsed time: 0.089 seconds.

tnom = 27
temp = 27
method = modified trap
totiter = 417
traniter = 412
tranpoints = 189
accept = 143
rejected = 46
matrix size = 30
fillins = 14
solver = Normal
Thread vector: 16.7/11.2[2] 4.8/3.7[2] 3.1/2.8[1] 0.4/1.9[1]  2592/500
Matrix Compiler1: 2.07 KB object code size  2.0/0.7/[0.4]
Matrix Compiler2: 3.23 KB object code size  1.0/1.0/[0.5]

