Circuit: * C:\Users\Shannon\Dropbox\moog\spankulator\Spankulator-Hardware\spice\spank_dig_output.asc

WARNING: Node NC_02 is floating.

WARNING: Less than two connections to node NC_01.  This node is used by V1.
WARNING: Less than two connections to node NC_02.  This node is used by V1.
Direct Newton iteration for .op point succeeded.

Date: Thu Feb 25 18:37:12 2021
Total elapsed time: 0.109 seconds.

tnom = 27
temp = 27
method = modified trap
totiter = 28594
traniter = 28584
tranpoints = 12566
accept = 9786
rejected = 2780
matrix size = 17
fillins = 2
solver = Normal
Matrix Compiler1: 1.05 KB object code size  0.3/0.1/[0.1]
Matrix Compiler2: off  [0.1]/0.2/0.1

