Circuit: * C:\Users\Shannon\Dropbox\moog\spankulator\Spankulator-Hardware\spice\spank_input_new.asc

Direct Newton iteration for .op point succeeded.

Date: Sun Apr 11 06:22:29 2021
Total elapsed time: 0.066 seconds.

tnom = 27
temp = 27
method = modified trap
totiter = 344
traniter = 339
tranpoints = 164
accept = 119
rejected = 45
matrix size = 29
fillins = 14
solver = Normal
Thread vector: 9.3/5.7[2] 2.3/1.8[2] 1.6/1.2[2] 0.2/0.5[1]  2592/500
Matrix Compiler1: 2.07 KB object code size  0.6/0.4/[0.1]
Matrix Compiler2: 3.19 KB object code size  0.4/0.6/[0.3]

