Circuit: * C:\Users\shann\Dropbox\moog\spankulator\Spankulator-Hardware\spice\spank_output_analog2.asc

Direct Newton iteration failed to find .op point.  (Use ".option noopiter" to skip.)
Starting Gmin stepping
Gmin = 10
Gmin = 1.07374
vernier = 0.5
vernier = 0.25
vernier = 0.125
vernier = 0.0625
Gmin = 1.08884
vernier = 0.03125
vernier = 0.015625
Gmin = 1.03122
vernier = 0.0078125
vernier = 0.0104167
vernier = 0.00520833
Gmin = 1.01988
vernier = 0.00260417
vernier = 0.00347222
Gmin = 1.01305
vernier = 0.00173611
vernier = 0.00231481
vernier = 0.00115741
Gmin = 1.01085
vernier = 0.00154321
vernier = 0.000771604
Gmin = 1.00871
vernier = 0.00102881
vernier = 0.000514403
Gmin = 1.00715
vernier = 0.00068587
vernier = 0.000514403
Gmin = 1.0059
vernier = 0.00068587
vernier = 0.000514402
Gmin = 0
Gmin stepping failed

Starting source stepping with srcstepmethod=0
Source Step = 3.0303%
Source Step = 33.3333%
Source Step = 63.6364%
Source Step = 93.9394%
Source stepping succeeded in finding the operating point.


Date: Mon Jan 17 02:58:18 2022
Total elapsed time: 0.223 seconds.

tnom = 27
temp = 27
method = modified trap
totiter = 9991
traniter = 3674
tranpoints = 1489
accept = 1010
rejected = 479
matrix size = 17
fillins = 7
solver = Normal
Matrix Compiler1: 1.04 KB object code size  0.2/0.1/[0.1]
Matrix Compiler2: 1.68 KB object code size  0.2/0.2/[0.2]

