Circuit: * C:\Users\Shannon\Dropbox\moog\spankulator\Spankulator-Hardware\spice\spank_dig_output_2fet.asc

WARNING: Less than two connections to node NC_01.  This node is used by D1.
WARNING: Less than two connections to node NC_02.  This node is used by D2.
Direct Newton iteration for .op point succeeded.

Date: Sat Mar 06 02:54:57 2021
Total elapsed time: 9.000 seconds.

tnom = 27
temp = 27
method = modified trap
totiter = 5392243
traniter = 5392211
tranpoints = 1377918
accept = 1046694
rejected = 331224
matrix size = 18
fillins = 4
solver = Normal
Matrix Compiler1: 1.18 KB object code size  0.3/0.1/[0.1]
Matrix Compiler2: off  [0.1]/0.2/0.2

